Version 4
SHEET 1 1160 680
WIRE 384 -336 128 -336
WIRE 128 -176 128 -336
WIRE 480 -80 320 -80
WIRE 384 -32 384 -336
WIRE 128 -16 128 -96
WIRE 128 -16 -32 -16
WIRE 320 -16 320 -80
WIRE 352 -16 320 -16
WIRE 480 0 480 -80
WIRE 480 0 416 0
WIRE 560 0 480 0
WIRE 352 16 336 16
WIRE 336 32 336 16
WIRE 336 32 256 32
WIRE 128 48 80 48
WIRE 256 48 256 32
WIRE 256 48 208 48
WIRE 80 112 80 48
WIRE 256 112 256 48
WIRE -32 240 -32 -16
WIRE 80 240 80 192
WIRE 80 240 -32 240
WIRE 256 240 256 176
WIRE 256 240 80 240
WIRE 384 240 384 32
WIRE 384 240 256 240
WIRE 416 240 416 64
WIRE 416 240 384 240
WIRE 448 240 448 80
WIRE 448 240 416 240
WIRE 80 272 80 240
FLAG 80 272 0
SYMBOL voltage 80 96 R0
WINDOW 3 -171 219 Left 2
WINDOW 123 0 0 Left 0
WINDOW 39 0 0 Left 0
SYMATTR Value PWL file=C:\Users\Garripoli\Desktop\giufla\projectSineWave\python\datiLTspice_fin.txt
SYMATTR InstName V1
SYMBOL res 224 32 R90
WINDOW 0 0 56 VBottom 2
WINDOW 3 32 56 VTop 2
SYMATTR InstName R1
SYMATTR Value 50
SYMBOL cap 240 112 R0
SYMATTR InstName C1
SYMATTR Value 50n
SYMBOL voltage 128 -192 R0
WINDOW 123 0 0 Left 0
WINDOW 39 0 0 Left 0
SYMATTR InstName V2
SYMATTR Value 15V
SYMBOL Opamps\\AD549 384 -64 R0
SYMATTR InstName U1
TEXT 408 -192 Left 2 !.tran 0 10ms 0 10n
