Version 4
SHEET 1 1428 680
WIRE 848 -560 592 -560
WIRE -640 -528 -896 -528
WIRE 592 -400 592 -560
WIRE -896 -368 -896 -528
WIRE 944 -304 784 -304
WIRE -544 -272 -704 -272
WIRE 848 -256 848 -560
WIRE 592 -240 592 -320
WIRE 592 -240 432 -240
WIRE 784 -240 784 -304
WIRE 816 -240 784 -240
WIRE -640 -224 -640 -528
WIRE 944 -224 944 -304
WIRE 944 -224 880 -224
WIRE 1024 -224 944 -224
WIRE -896 -208 -896 -288
WIRE -896 -208 -1056 -208
WIRE -704 -208 -704 -272
WIRE -672 -208 -704 -208
WIRE 816 -208 800 -208
WIRE -544 -192 -544 -272
WIRE -544 -192 -608 -192
WIRE -464 -192 -544 -192
WIRE 800 -192 800 -208
WIRE 800 -192 720 -192
WIRE -672 -176 -688 -176
WIRE 592 -176 544 -176
WIRE 720 -176 720 -192
WIRE 720 -176 672 -176
WIRE -688 -160 -688 -176
WIRE -688 -160 -768 -160
WIRE -896 -144 -944 -144
WIRE -768 -144 -768 -160
WIRE -768 -144 -816 -144
WIRE 848 -128 848 -192
WIRE 544 -112 544 -176
WIRE 720 -112 720 -176
WIRE -640 -96 -640 -160
WIRE -944 -80 -944 -144
WIRE -768 -80 -768 -144
WIRE 432 16 432 -240
WIRE 544 16 544 -32
WIRE 544 16 432 16
WIRE 720 16 720 -48
WIRE 720 16 544 16
WIRE 848 16 848 -48
WIRE 848 16 720 16
WIRE -1056 48 -1056 -208
WIRE -944 48 -944 0
WIRE -944 48 -1056 48
WIRE -768 48 -768 -16
WIRE -768 48 -944 48
WIRE -640 48 -640 -16
WIRE -640 48 -768 48
WIRE 544 48 544 16
WIRE -944 80 -944 48
FLAG -944 80 0
FLAG 544 48 0
SYMBOL voltage -944 -96 R0
WINDOW 3 -171 219 Left 2
WINDOW 123 0 0 Left 0
WINDOW 39 0 0 Left 0
SYMATTR Value PWL file=C:\Users\Garripoli\Desktop\giufla\projectSineWave\python\datiLTspice_fin.txt
SYMATTR InstName V1
SYMBOL res -800 -160 R90
WINDOW 0 0 56 VBottom 2
WINDOW 3 32 56 VTop 2
SYMATTR InstName R1
SYMATTR Value 50
SYMBOL cap -784 -80 R0
SYMATTR InstName C1
SYMATTR Value 400n
SYMBOL voltage -896 -384 R0
WINDOW 123 0 0 Left 0
WINDOW 39 0 0 Left 0
SYMATTR InstName V2
SYMATTR Value 10V
SYMBOL voltage -640 0 R180
WINDOW 0 24 96 Left 2
WINDOW 3 24 16 Left 2
SYMATTR InstName V3
SYMATTR Value 10V
SYMBOL Opamps\\LT1178A -640 -256 R0
SYMATTR InstName U1
SYMBOL voltage 544 -128 R0
WINDOW 3 -171 219 Left 2
WINDOW 123 0 0 Left 0
WINDOW 39 0 0 Left 0
SYMATTR Value PWL file=C:\Users\Garripoli\Desktop\giufla\projectSineWave\python\datiLTspice_fin.txt
SYMATTR InstName V4
SYMBOL res 688 -192 R90
WINDOW 0 0 56 VBottom 2
WINDOW 3 32 56 VTop 2
SYMATTR InstName R2
SYMATTR Value 50
SYMBOL cap 704 -112 R0
SYMATTR InstName C2
SYMATTR Value 400n
SYMBOL voltage 592 -416 R0
WINDOW 123 0 0 Left 0
WINDOW 39 0 0 Left 0
SYMATTR InstName V5
SYMATTR Value 10V
SYMBOL voltage 848 -32 R180
WINDOW 0 24 96 Left 2
WINDOW 3 24 16 Left 2
SYMATTR InstName V6
SYMATTR Value 10V
SYMBOL Opamps\\LT1882 848 -224 R0
SYMATTR InstName U2
TEXT -616 -384 Left 2 !.tran 0 1.5ms 0 10n
TEXT 872 -416 Left 2 !;tran 0 1.5ms 0 10n
